/*--------------------------------*- C++ -*----------------------------------*\
| =========                 |                                                 |
| \\      /  F ield         | OpenFOAM: The Open Source CFD Toolbox           |
|  \\    /   O peration     | Version:  plus                                  |
|   \\  /    A nd           | Web:      www.OpenFOAM.com                      |
|    \\/     M anipulation  |                                                 |
\*---------------------------------------------------------------------------*/
FoamFile
{
    version     2.0;
    format      ascii;
    class       dictionary;
    object      blockMeshDict;
}
// * * * * * * * * * * * * * * * * * * * * * * * * * * * * * * * * * * * * * //

convertToMeters 1;

vertices
(
    (-5 -5 0)
    (5 -5 0)
    (5 5 0)
    (-5 5 0)
    (-5 -5 0.1)
    (5 -5 0.1)
    (5 5 0.1)
    (-5 5 0.1)
);

blocks
(
    hex (0 1 2 3 4 5 6 7) (250 250 1) simpleGrading (1 1 1)
);

edges
(
);

boundary
(
    top
    {
        type wall;
        faces
        (
            (7 6 2 3)
        );
    }
    bottom
    {
        type wall;
        faces
        (
            (4 5 1 0)
        );
    }
    right
    {
        type wall;
        faces
        (
            (5 6 2 1)
        );
    }
    left
    {
        type wall;
        faces
        (
            (4 7 3 0)
        );
    }
    frontAndBack
    {
        type empty;
        faces
        (
            (4 5 6 7)
	    (0 1 2 3)
        );
    }
);

mergePatchPairs
(
);

// ************************************************************************* //
