/*--------------------------------*- C++ -*----------------------------------*\
| =========                 |                                                 |
| \\      /  F ield         | OpenFOAM: The Open Source CFD Toolbox           |
|  \\    /   O peration     | Version:  plus                                  |
|   \\  /    A nd           | Web:      www.OpenFOAM.com                      |
|    \\/     M anipulation  |                                                 |
\*---------------------------------------------------------------------------*/
FoamFile
{
    version     2.0;
    format      ascii;
    class       volScalarField;
    location    "0";
    object      alphat;
}
// * * * * * * * * * * * * * * * * * * * * * * * * * * * * * * * * * * * * * //

dimensions      [0 2 -1 0 0 0 0];

internalField   uniform 1e-7;

boundaryField
{
    up
    {
        type            alphatJayatillekeWallFunction;
        Prt             0.85;
        value           uniform 0;
    }
    down
    {
        type            alphatJayatillekeWallFunction;
        Prt             0.85;
        value           uniform 0;
    }
    right
    {
        type            alphatJayatillekeWallFunction;
        Prt             0.85;
        value           uniform 0;
    }
    circumference
    {
	type		alphatJayatillekeWallFunction;
	Prt		0.85;
	value		uniform 0;
    }
    left
    {
	type		symmetryPlane;
    }
    ahead
    {
	type		empty;
    }
    behind
    {
	type		empty;
    }
}


// ************************************************************************* //
