/*--------------------------------*- C++ -*----------------------------------*\
| =========                 |                                                 |
| \\      /  F ield         | OpenFOAM: The Open Source CFD Toolbox           |
|  \\    /   O peration     | Version:  plus                                  |
|   \\  /    A nd           | Web:      www.OpenFOAM.com                      |
|    \\/     M anipulation  |                                                 |
\*---------------------------------------------------------------------------*/
FoamFile
{
    version     2.0;
    format      ascii;
    class       volScalarField;
    object      p;
}
// * * * * * * * * * * * * * * * * * * * * * * * * * * * * * * * * * * * * * //

dimensions      [0 2 -2 0 0 0 0];

internalField   uniform 0;

boundaryField
{
    up
    {
        type            zeroGradient;
    }

    down
    {
        type            zeroGradient;
    }

    right
    {
        type            zeroGradient;
    }

    circumference
    {
        type            zeroGradient;
    }

    left
    {
	type		symmetryPlane;
    }

    ahead
    {
	type		empty;
    }

    behind
    {
	type		empty;
    }
}

// ************************************************************************* //
