/*--------------------------------*- C++ -*----------------------------------*\
  =========                 |
  \\      /  F ield         | OpenFOAM: The Open Source CFD Toolbox
   \\    /   O peration     | Website:  https://openfoam.org
    \\  /    A nd           | Version:  dev
     \\/     M anipulation  |
\*---------------------------------------------------------------------------*/
FoamFile
{
    version     2.0;
    format      ascii;
    class       dictionary;
    object      blockMeshDict;
}
// * * * * * * * * * * * * * * * * * * * * * * * * * * * * * * * * * * * * * //

geometry
{
    sphere
    {
        type searchableSphere;
        centre (0 0 0);
        radius 0.072;
    }
}

scale 1;

// Corner edges
//v 0.0415704;
//mv -0.0415704;

v 0.0415704;
mv -0.0415704;

// Arc points
//a 0.05091168;
//ma -0.05091168;

vertices
(
   // ($mv 0 $mv) //0
  //  ($v 0 $mv) // 1
   // ($v $v $mv) //2
  //  ($mv $v $mv) //3
  //  ($mv $mv $v) //4
   // ($v $mv $v) //5
   // ($v $v $v) //6
  //  ($mv $v $v) // 7

	($mv 0 $mv) //0
	($v 0 $mv) //1
	($v $v $mv) //2
	($mv $v $mv) //3
	($mv 0 $v) //4
	($v 0 $v) //5
	($v $v $v) //6
	($mv $v $v) //7

);

blocks
(
    hex (0 1 2 3 4 5 6 7) gland (10 10 10) simpleGrading (1 1 1) // 0
);

edges
(

    project  0  1 (sphere)
    project  2  3 (sphere)
    project  6  7 (sphere)
    project  4  5 (sphere)

    project  0  3 (sphere)
    project  1  2 (sphere)
    project  5  6 (sphere)
    project  4  7 (sphere)

    project  0  4 (sphere)
    project  1  5 (sphere)
    project  2  6 (sphere)
    project  3  7 (sphere)
);

faces
(
    project (0 4 7 3) sphere
    project (2 6 5 1) sphere
    project (1 5 4 0) sphere
    project (3 7 6 2) sphere
    project (0 3 2 1) sphere
    project (4 5 6 7) sphere
);

boundary
(
    circumference
    {
        type wall;
        faces
        (
            (0 4 7 3)
            (2 6 5 1)
            (3 7 6 2)
            (0 3 2 1)
            (4 5 6 7)
        );
    }
    Bottom
    {
	type wall;
	faces
	(
	    (1 5 4 0)
	);
    }
);



// ************************************************************************* //
