/*--------------------------------*- C++ -*----------------------------------*\
  =========                 |
  \\      /  F ield         | OpenFOAM: The Open Source CFD Toolbox
   \\    /   O peration     | Website:  https://openfoam.org
    \\  /    A nd           | Version:  6
     \\/     M anipulation  |
\*---------------------------------------------------------------------------*/
FoamFile
{
    version     2.0;
    format      ascii;
    class       polyBoundaryMesh;
    location    "constant/polyMesh";
    object      boundary;
}
// * * * * * * * * * * * * * * * * * * * * * * * * * * * * * * * * * * * * * //

5
(
    right
    {
        type            wall;
        inGroups        1(wall);
        nFaces          25;
        startFace       1200;
    }
    left
    {
        type            wall;
        inGroups        1(wall);
        nFaces          25;
        startFace       1225;
    }
    top
    {
        type            wall;
        inGroups        1(wall);
        nFaces          25;
        startFace       1250;
    }
    bottom
    {
        type            wall;
        inGroups        1(wall);
        nFaces          25;
        startFace       1275;
    }
    frontAndBack
    {
        type            empty;
        inGroups        1(empty);
        nFaces          1250;
        startFace       1300;
    }
)

// ************************************************************************* //
