/*--------------------------------*- C++ -*----------------------------------*\
  =========                 |
  \\      /  F ield         | OpenFOAM: The Open Source CFD Toolbox
   \\    /   O peration     | Website:  https://openfoam.org
    \\  /    A nd           | Version:  6
     \\/     M anipulation  |
\*---------------------------------------------------------------------------*/
FoamFile
{
    version     2.0;
    format      ascii;
    class       polyBoundaryMesh;
    location    "constant/polyMesh";
    object      boundary;
}
// * * * * * * * * * * * * * * * * * * * * * * * * * * * * * * * * * * * * * //

5
(
    top
    {
        type            wall;
        inGroups        1(wall);
        nFaces          250;
        startFace       124500;
    }
    bottom
    {
        type            wall;
        inGroups        1(wall);
        nFaces          250;
        startFace       124750;
    }
    right
    {
        type            wall;
        inGroups        1(wall);
        nFaces          250;
        startFace       125000;
    }
    left
    {
        type            wall;
        inGroups        1(wall);
        nFaces          250;
        startFace       125250;
    }
    frontAndBack
    {
        type            empty;
        inGroups        1(empty);
        nFaces          125000;
        startFace       125500;
    }
)

// ************************************************************************* //
